<?xml version="1.0" encoding="UTF-8"?>

<!-- generated on 2025-08-27 22:03:14.742892 by randomTrips.py v1_24_0+0000-b72eb3fabc8
<configuration>
    <net-file value="map.net.xml"/>
    <output-trip-file value="persontrips.xml"/>
    <persontrips value="True"/>
    <trip-attributes value="modes=&quot;taxi&quot;"/>
    <end value="100.0"/>
</configuration>
-->

<!-- generated on 2025-08-27 22:03:14 by Eclipse SUMO duarouter Version 1.24.0
<duarouterConfiguration xmlns:xsi="http://www.w3.org/2001/XMLSchema-instance" xsi:noNamespaceSchemaLocation="http://sumo.dlr.de/xsd/duarouterConfiguration.xsd">

    <input>
        <net-file value="map.net.xml"/>
        <route-files value="persontrips.xml"/>
    </input>

    <output>
        <output-file value="routes.rou.xml"/>
        <alternatives-output value="NUL"/>
    </output>

    <time>
        <begin value="0"/>
        <end value="100.0"/>
    </time>

    <report>
        <no-warnings value="true"/>
        <ignore-errors value="true"/>
        <no-step-log value="true"/>
    </report>

</duarouterConfiguration>
-->

<routes xmlns:xsi="http://www.w3.org/2001/XMLSchema-instance" xsi:noNamespaceSchemaLocation="http://sumo.dlr.de/xsd/routes_file.xsd">
    <person id="0" depart="0.00">
        <walk edges="C2D2 E12 C1C2 C1B1 B1A1 A1B1"/>
    </person>
    <person id="1" depart="1.00">
        <walk edges="B2A2 B1B2 B1A1"/>
    </person>
    <person id="2" depart="2.00">
        <walk edges="C4B4 C3C4 C3C2"/>
    </person>
    <person id="3" depart="3.00">
        <walk edges="D2D3 D2C2 E11 E14 B2C2 A2B2"/>
    </person>
    <person id="4" depart="4.00">
        <walk edges="B3C3 E16 B2B3 B2B1 B1A1 A1B1"/>
    </person>
    <person id="5" depart="5.00">
        <walk edges="B1A1 C1B1"/>
    </person>
    <person id="6" depart="6.00">
        <walk edges="A1B1 A1A2 A2A3 A3A4 A4B4"/>
    </person>
    <person id="7" depart="7.00">
        <walk edges="C3B3 C3C2 E14 E13 C1C2 C1D1"/>
    </person>
    <person id="8" depart="8.00">
        <walk edges="B1A1 C1B1 C1C2 C2C1"/>
    </person>
    <person id="9" depart="9.00">
        <walk edges="D1C1 C1B1 B1A1 A1A2"/>
    </person>
    <person id="10" depart="10.00">
        <walk edges="D1C1 D2D1 D2C2 E11 C3C2 C3C4"/>
    </person>
    <person id="11" depart="11.00">
        <walk edges="B2C2 B2B3 E17 A3B3"/>
    </person>
    <person id="12" depart="12.00">
        <walk edges="D3D4 C3D3 C3C2 E14 B2C2"/>
    </person>
    <person id="13" depart="13.00">
        <walk edges="A2B2"/>
    </person>
    <person id="14" depart="14.00">
        <walk edges="D2C2 E12 C2C1"/>
    </person>
    <person id="15" depart="15.00">
        <ride from="D1C1" to="C4B4" lines="taxi"/>
    </person>
    <person id="16" depart="16.00">
        <ride from="C1C2" to="D4C4" lines="taxi"/>
    </person>
    <person id="17" depart="17.00">
        <walk edges="B3B2 B2B3 B2C2 E13 C1C2 C1D1"/>
    </person>
    <person id="18" depart="18.00">
        <walk edges="D1D2 D2D1 D2C2 E11 C2C3"/>
    </person>
    <person id="19" depart="19.00">
        <walk edges="D2D1 D2C2 E11 E14 C2B2"/>
    </person>
    <person id="20" depart="20.00">
        <walk edges="C3C4 C3B3 E16 B2B3 B2A2 A2A1"/>
    </person>
    <person id="21" depart="21.00">
        <walk edges="B1A1 B2B1 B2A2"/>
    </person>
    <person id="22" depart="22.00">
        <walk edges="A2A3 B2A2 B1B2"/>
    </person>
    <person id="23" depart="23.00">
        <walk edges="A2B2 B2A2"/>
    </person>
    <person id="24" depart="24.00">
        <walk edges="C2D2 E11 E14 B2C2 B2B3 E17 B3A3"/>
    </person>
    <person id="25" depart="25.00">
        <walk edges="B3A3 E17 B2B3 B2B1 B1A1"/>
    </person>
    <person id="26" depart="26.00">
        <ride from="B1C1" to="D3D2" lines="taxi"/>
    </person>
    <person id="27" depart="27.00">
        <walk edges="C3B3 C3C2 C2C3"/>
    </person>
    <person id="28" depart="28.00">
        <walk edges="A4A3 A4B4 B4B3 E15 C3B3 C3D3"/>
    </person>
    <person id="29" depart="29.00">
        <walk edges="A3B3 E17 B3B2"/>
    </person>
    <person id="30" depart="30.00">
        <walk edges="D4D3 D3D2 D2C2 C2D2"/>
    </person>
    <person id="31" depart="31.00">
        <walk edges="C1D1 C1C2 E12 E11 C3C2"/>
    </person>
    <person id="32" depart="32.00">
        <walk edges="D2C2 E11 C3C2 C3C4 C4D4"/>
    </person>
    <person id="33" depart="33.00">
        <walk edges="B1A1 A1B1"/>
    </person>
    <person id="34" depart="34.00">
        <walk edges="B2B3 B1B2 B1C1"/>
    </person>
    <person id="35" depart="35.00">
        <walk edges="B1A1 B2B1 B2B3 E16 C3B3 C3D3 D3D4"/>
    </person>
    <person id="36" depart="36.00">
        <walk edges="D2D3 D2C2 E11 E14 B2C2 B2B3"/>
    </person>
    <person id="37" depart="37.00">
        <walk edges="C3B3 E16 B3B2"/>
    </person>
    <person id="38" depart="38.00">
        <walk edges="D3C3 C3B3 E15 B4B3"/>
    </person>
    <person id="39" depart="39.00">
        <walk edges="B1C1 B1B2"/>
    </person>
    <person id="40" depart="40.00">
        <walk edges="C1D1 C1B1 B1C1"/>
    </person>
    <person id="41" depart="41.00">
        <walk edges="C2C1 E12 D2C2 D3D2 D3C3"/>
    </person>
    <person id="42" depart="42.00">
        <walk edges="B3B4 E18 E17 B2B3 B1B2 B1A1"/>
    </person>
    <person id="43" depart="43.00">
        <ride from="D4D3" to="C1B1" lines="taxi"/>
    </person>
    <person id="44" depart="44.00">
        <walk edges="A2B2 A2A1"/>
    </person>
    <person id="45" depart="45.00">
        <walk edges="A3A2 A3B3 E17 E16 C3B3 C3C2 E11 C2D2"/>
    </person>
    <person id="46" depart="46.00">
        <ride from="D1C1" to="B3C3" lines="taxi"/>
    </person>
    <person id="47" depart="47.00">
        <walk edges="A2A3 B2A2 B2B3 B3B2"/>
    </person>
    <person id="48" depart="48.00">
        <ride from="D4D3" to="C1C2" lines="taxi"/>
    </person>
    <person id="49" depart="49.00">
        <walk edges="D4C4 D4D3 D3D2 D2D1"/>
    </person>
    <person id="50" depart="50.00">
        <ride from="A1A2" to="C3D3" lines="taxi"/>
    </person>
    <person id="51" depart="51.00">
        <walk edges="C3C2 E14 E13 C1C2"/>
    </person>
    <person id="52" depart="52.00">
        <walk edges="B1C1 C1B1 C1C2 E12 C2D2"/>
    </person>
    <person id="53" depart="53.00">
        <walk edges="A3A2 A3B3 E17 E16 B3C3"/>
    </person>
    <person id="54" depart="54.00">
        <walk edges="B4A4 B4B3 E15 C3B3 C3D3 D3D4"/>
    </person>
    <person id="55" depart="55.00">
        <walk edges="D2D3 D2C2 E12 C1C2 C1B1 B1C1"/>
    </person>
    <person id="56" depart="56.00">
        <ride from="C1B1" to="A4A3" lines="taxi"/>
    </person>
    <person id="57" depart="57.00">
        <walk edges="D3C3 D3D2 D2D1"/>
    </person>
    <person id="58" depart="58.00">
        <walk edges="B2B1 B2C2 E13 E12 C2D2"/>
    </person>
    <person id="59" depart="59.00">
        <walk edges="C2C3 E14 B2C2 B2B3 E17 A3B3"/>
    </person>
    <person id="60" depart="60.00">
        <walk edges="C4C3 C3C2 E14 E13 C1C2"/>
    </person>
    <person id="61" depart="61.00">
        <walk edges="C4D4 C3C4 C3C2 E14 E13 C1C2"/>
    </person>
    <person id="62" depart="62.00">
        <walk edges="A1A2 B1A1 B2B1 B2B3"/>
    </person>
    <person id="63" depart="63.00">
        <ride from="A1A2" to="D3D2" lines="taxi"/>
    </person>
    <person id="64" depart="64.00">
        <walk edges="D2D3 D2D1 D1D2"/>
    </person>
    <person id="65" depart="65.00">
        <walk edges="B2B1 A2B2 A2A1"/>
    </person>
    <person id="66" depart="66.00">
        <walk edges="D2D3 D3D2 D3D4"/>
    </person>
    <person id="67" depart="67.00">
        <walk edges="A2B2 A2A3 A3B3 E18 B4B3 B4C4"/>
    </person>
    <person id="68" depart="68.00">
        <ride from="A2A3" to="C4C3" lines="taxi"/>
    </person>
    <person id="69" depart="69.00">
        <walk edges="C4C3 B4C4 B4B3 E18 A3B3 A3A4"/>
    </person>
    <person id="70" depart="70.00">
        <ride from="B4B3" to="C1D1" lines="taxi"/>
    </person>
    <person id="71" depart="71.00">
        <walk edges="B1C1 C1B1 C1C2 E12 D2C2 D2D1"/>
    </person>
    <person id="72" depart="72.00">
        <walk edges="B3C3 E16 B2B3 B2B1 B1A1"/>
    </person>
    <person id="73" depart="73.00">
        <walk edges="C1C2 E12 E11 C3C2 C3C4 C4B4"/>
    </person>
    <person id="74" depart="74.00">
        <walk edges="A4B4 A3A4 A3B3 E17 B2B3 B2B1"/>
    </person>
    <person id="75" depart="75.00">
        <walk edges="D4D3 C4D4 C3C4 C3B3"/>
    </person>
    <person id="76" depart="76.00">
        <walk edges="B4A4 B4B3 E18 E17 B2B3 B2C2 E13 C1C2 C1B1"/>
    </person>
    <person id="77" depart="77.00">
        <walk edges="A3A2 A3B3 E17 B2B3 B2B1 B1A1"/>
    </person>
    <person id="78" depart="78.00">
        <walk edges="B2C2 E13 C2C1"/>
    </person>
    <person id="79" depart="79.00">
        <walk edges="B1B2 B1A1"/>
    </person>
    <person id="80" depart="80.00">
        <walk edges="A2A3 B2A2 B2C2 E13 E12 C2D2"/>
    </person>
    <person id="81" depart="81.00">
        <walk edges="B1A1 B2B1 B2B3 E16 C3B3 D3C3"/>
    </person>
    <person id="82" depart="82.00">
        <walk edges="D2D1 D2C2 E11 E14 B2C2 B2A2 A2A3"/>
    </person>
    <person id="83" depart="83.00">
        <walk edges="B1B2 B2C2 E14 C3C2"/>
    </person>
    <person id="84" depart="84.00">
        <walk edges="B1A1 B2B1 B2B3 E17 A3B3 A3A4"/>
    </person>
    <person id="85" depart="85.00">
        <walk edges="D3D2 C3D3 C3C2 E14 C2B2"/>
    </person>
    <person id="86" depart="86.00">
        <walk edges="B4B3 B4C4 C4D4"/>
    </person>
    <person id="87" depart="87.00">
        <ride from="D1C1" to="A4B4" lines="taxi"/>
    </person>
    <person id="88" depart="88.00">
        <walk edges="A2B2 B2B3 E16 B3C3"/>
    </person>
    <person id="89" depart="89.00">
        <walk edges="B3C3 E15 B4B3"/>
    </person>
    <person id="90" depart="90.00">
        <walk edges="C3D3 C3C2"/>
    </person>
    <person id="91" depart="91.00">
        <ride from="D4D3" to="A2B2" lines="taxi"/>
    </person>
    <person id="92" depart="92.00">
        <walk edges="B3B4 E18 E17 B2B3 B2C2"/>
    </person>
    <person id="93" depart="93.00">
        <walk edges="D2D1 D2C2 E12 C1C2 C1B1 B1B2"/>
    </person>
    <person id="94" depart="94.00">
        <walk edges="A4B4 B4A4"/>
    </person>
    <person id="95" depart="95.00">
        <walk edges="B3C3 E16 B2B3 B2A2"/>
    </person>
    <person id="96" depart="96.00">
        <ride from="B1B2" to="D3D2" lines="taxi"/>
    </person>
    <person id="97" depart="97.00">
        <walk edges="B4A4 B4B3 E15 C3B3 C3C2 E11 D2C2 D2D1"/>
    </person>
    <person id="98" depart="98.00">
        <walk edges="C1D1 C1C2 E13 B2C2 B2A2 A2A1"/>
    </person>
    <person id="99" depart="99.00">
        <walk edges="D4D3 D3D2 D2C2"/>
    </person>
</routes>
