<?xml version="1.0" encoding="UTF-8"?>

<!-- generated on 2026-03-07 21:59:47.601046 by Eclipse SUMO osmWebWizard.py v1_26_0+0000-fa7df22d7f1
<configuration>
    <net-file value="D:\6Sumo\RLTesting\2026-03-07-21-59-25\osm.net.xml.gz"/>
    <output-trip-file value="D:\6Sumo\RLTesting\2026-03-07-21-59-25\osm.passenger.trips.xml"/>
    <route-file value="D:\6Sumo\RLTesting\2026-03-07-21-59-25\osm.passenger.rou.xml"/>
    <prefix value="veh"/>
    <trip-attributes value="departLane=&quot;best&quot;"/>
    <fringe-start-attributes value="departSpeed=&quot;max&quot;"/>
    <vehicle-class value="passenger"/>
    <lanes value="True"/>
    <fringe-factor value="5"/>
    <allow-fringe.min-length value="1000.0"/>
    <edge-permission value="passenger"/>
    <via-edge-types value="highway.motorway,highway.motorway_link,highway.trunk_link,highway.primary_link,highway.secondary_link,highway.tertiary_link"/>
    <min-distance value="300.0"/>
    <min-distance.fringe value="10.0"/>
    <remove-loops value="True"/>
    <end value="10.0"/>
    <insertion-density value="12.0"/>
</configuration>
-->

<routes xmlns:xsi="http://www.w3.org/2001/XMLSchema-instance" xsi:noNamespaceSchemaLocation="http://sumo.dlr.de/xsd/routes_file.xsd">
    <vType id="veh_passenger" vClass="passenger"/>
    <trip id="veh0" depart="0.00" from="344412438#0" to="-1253169948#3" departLane="best" type="veh_passenger"/>
    <trip id="veh1" depart="0.65" from="-601589727#1" to="-53633201#0" departLane="best" type="veh_passenger"/>
    <trip id="veh2" depart="1.31" from="1234983866" to="-1277836489#3" departLane="best" type="veh_passenger"/>
    <trip id="veh3" depart="1.96" from="-53633200#3" to="136979490#5" departLane="best" type="veh_passenger"/>
    <trip id="veh4" depart="2.61" from="-1264386180#8" to="-53633150" departLane="best" type="veh_passenger"/>
    <trip id="veh5" depart="3.27" from="402934744#1" to="165271537#0" departLane="best" type="veh_passenger"/>
    <trip id="veh6" depart="3.92" from="-53633206#1" to="25718089" departLane="best" type="veh_passenger"/>
    <trip id="veh7" depart="4.57" from="778584559" to="102678336#0" departLane="best" type="veh_passenger"/>
    <trip id="veh8" depart="5.23" from="-25720090#0" to="-25720691#0" departLane="best" type="veh_passenger"/>
    <trip id="veh9" depart="5.88" from="53746140#7" to="25720691#1" departLane="best" type="veh_passenger"/>
    <trip id="veh10" depart="6.53" from="53655562#1" to="53561441#1" departLane="best" type="veh_passenger"/>
    <trip id="veh11" depart="7.19" from="187374248#3" to="843189950#1" departLane="best" type="veh_passenger"/>
    <trip id="veh12" depart="7.84" from="1159935915" to="187374248#1" departLane="best" type="veh_passenger"/>
    <trip id="veh13" depart="8.49" from="53746026#0" to="25721117#9" departLane="best" type="veh_passenger" departSpeed="max"/>
    <trip id="veh14" depart="9.15" from="604103782#0" to="25717457#0" departLane="best" type="veh_passenger" departSpeed="max"/>
    <trip id="veh15" depart="9.80" from="-25717908#3" to="-53655495#0" departLane="best" type="veh_passenger" departSpeed="max"/>
</routes>
