<?xml version='1.0' encoding='utf-8'?>
<routes xmlns:xsi="http://www.w3.org/2001/XMLSchema-instance" xsi:noNamespaceSchemaLocation="http://sumo.dlr.de/xsd/routes_file.xsd">
    <person id="6" depart="6.00">
        <ride from="-1213201223#5" to="-53655560#3" lines="taxi" />
    </person>
    <person id="27" depart="27.00">
        <ride from="-53655546#0" to="53655515#1" lines="taxi" />
    </person>
    <person id="47" depart="47.00">
        <ride from="-103755414#0" to="53655508#0" lines="taxi" />
    </person>
    <person id="48" depart="48.00">
        <ride from="274056657" to="165271536#3" lines="taxi" />
    </person>
    <person id="57" depart="57.00">
        <ride from="53655551" to="165271538#0" lines="taxi" />
    </person>
    <person id="58" depart="58.00">
        <ride from="53655560#6" to="154518278" lines="taxi" />
    </person>
    <person id="68" depart="68.00">
        <ride from="165271538#0" to="53655515#2" lines="taxi" />
    </person>
    <person id="78" depart="78.00">
        <ride from="-541594063#6" to="-53655497#3" lines="taxi" />
    </person>
    <person id="85" depart="85.00">
        <ride from="1211159976" to="102562074#0" lines="taxi" />
    </person>
    <person id="87" depart="87.00">
        <ride from="-53655560#0" to="1253814494#1" lines="taxi" />
    </person>
    <person id="94" depart="94.00">
        <ride from="1323123993#0" to="-541594063#5" lines="taxi" />
    </person>
    <person id="107" depart="107.00">
        <ride from="-210994252#1" to="-53655553#1" lines="taxi" />
    </person>
    <person id="112" depart="112.00">
        <ride from="-53658195#2" to="53655504#3" lines="taxi" />
    </person>
    <person id="114" depart="114.00">
        <ride from="-884054432#5" to="53655546#6" lines="taxi" />
    </person>
    <person id="116" depart="116.00">
        <ride from="-210983340" to="-541594063#3" lines="taxi" />
    </person>
    <person id="127" depart="127.00">
        <ride from="53655505#2" to="-53658195#0" lines="taxi" />
    </person>
    <person id="132" depart="132.00">
        <ride from="-102566012#1" to="53655560#13" lines="taxi" />
    </person>
    <person id="145" depart="145.00">
        <ride from="-53655523#2" to="776830931" lines="taxi" />
    </person>
    <person id="157" depart="157.00">
        <ride from="-1213201222" to="-53655560#13" lines="taxi" />
    </person>
    <person id="170" depart="170.00">
        <ride from="1116728179" to="-210983279" lines="taxi" />
    </person>
    <person id="188" depart="188.00">
        <ride from="-53655560#4" to="-1213201223#1" lines="taxi" />
    </person>
    <person id="189" depart="189.00">
        <ride from="1218672122#0" to="211071567#2" lines="taxi" />
    </person>
    <person id="193" depart="193.00">
        <ride from="53655546#3" to="53655560#11" lines="taxi" />
    </person>
    <person id="207" depart="207.00">
        <ride from="165271538#11" to="-53655504#1" lines="taxi" />
    </person>
    <person id="210" depart="210.00">
        <ride from="1213201224#0" to="165271538#8" lines="taxi" />
    </person>
    <person id="211" depart="211.00">
        <ride from="1218672122#3" to="-53658196#2" lines="taxi" />
    </person>
    <person id="216" depart="216.00">
        <ride from="103755414#1" to="53655546#9" lines="taxi" />
    </person>
    <person id="226" depart="226.00">
        <ride from="-1213201223#6" to="221195038#2" lines="taxi" />
    </person>
    <person id="228" depart="228.00">
        <ride from="-154984257#3" to="1157697968" lines="taxi" />
    </person>
    <person id="230" depart="230.00">
        <ride from="53655550#0" to="1157697968" lines="taxi" />
    </person>
    <person id="238" depart="238.00">
        <ride from="-53561422" to="25720691#1" lines="taxi" />
    </person>
    <person id="247" depart="247.00">
        <ride from="-211071547#0" to="53655560#15" lines="taxi" />
    </person>
    <person id="249" depart="249.00">
        <ride from="53655562#2" to="102566012#6" lines="taxi" />
    </person>
    <person id="251" depart="251.00">
        <ride from="1341231696#2" to="102562074#4" lines="taxi" />
    </person>
    <person id="257" depart="257.00">
        <ride from="165271537#1" to="1323123990#1" lines="taxi" />
    </person>
    <person id="269" depart="269.00">
        <ride from="-210994269#1" to="53655507#1" lines="taxi" />
    </person>
    <person id="270" depart="270.00">
        <ride from="1328701481#4" to="53655547#8" lines="taxi" />
    </person>
    <person id="279" depart="279.00">
        <ride from="-53655560#12" to="-272078615#4" lines="taxi" />
    </person>
    <person id="280" depart="280.00">
        <ride from="165271536#1" to="53655551" lines="taxi" />
    </person>
    <person id="282" depart="282.00">
        <ride from="1323123991" to="53655510#1" lines="taxi" />
    </person>
    <person id="284" depart="284.00">
        <ride from="-608512851" to="-211071545#1" lines="taxi" />
    </person>
    <person id="294" depart="294.00">
        <ride from="-210983358" to="211071567#1" lines="taxi" />
    </person>
    <person id="295" depart="295.00">
        <ride from="-165271536#2" to="-53655513#2" lines="taxi" />
    </person>
    <person id="304" depart="304.00">
        <ride from="53655527#6" to="850142395#0" lines="taxi" />
    </person>
    <person id="305" depart="305.00">
        <ride from="-53658197" to="-53746020#2" lines="taxi" />
    </person>
    <person id="312" depart="312.00">
        <ride from="53658196#0" to="211071545#3" lines="taxi" />
    </person>
    <person id="321" depart="321.00">
        <ride from="1331302682#0" to="-210994252#1" lines="taxi" />
    </person>
    <person id="326" depart="326.00">
        <ride from="-1264386180#3" to="53655547#4" lines="taxi" />
    </person>
    <person id="338" depart="338.00">
        <ride from="53655547#5" to="211071547#0" lines="taxi" />
    </person>
    <person id="339" depart="339.00">
        <ride from="53655549#0" to="-53658195#0" lines="taxi" />
    </person>
    <person id="347" depart="347.00">
        <ride from="53655505#0" to="1352009118" lines="taxi" />
    </person>
    <person id="358" depart="358.00">
        <ride from="165271537#2" to="102566012#2" lines="taxi" />
    </person>
    <person id="364" depart="364.00">
        <ride from="53655530#1" to="53655492#8" lines="taxi" />
    </person>
    <person id="372" depart="372.00">
        <ride from="53655509#0" to="1213201224#4" lines="taxi" />
    </person>
    <person id="393" depart="393.00">
        <ride from="-53655507#0" to="1282343424" lines="taxi" />
    </person>
    <person id="413" depart="413.00">
        <ride from="272078615#0" to="53655508#0" lines="taxi" />
    </person>
    <person id="419" depart="419.00">
        <ride from="-53655546#9" to="-53655497#3" lines="taxi" />
    </person>
    <person id="424" depart="424.00">
        <ride from="884054432#4" to="-53655505#2" lines="taxi" />
    </person>
    <person id="428" depart="428.00">
        <ride from="1116728180" to="53658199" lines="taxi" />
    </person>
    <person id="440" depart="440.00">
        <ride from="25720693" to="53655529#0" lines="taxi" />
    </person>
    <person id="455" depart="455.00">
        <ride from="-210983260" to="53655554" lines="taxi" />
    </person>
    <person id="463" depart="463.00">
        <ride from="-1079659299#1" to="53658197" lines="taxi" />
    </person>
    <person id="465" depart="465.00">
        <ride from="-53655546#7" to="-165271536#0" lines="taxi" />
    </person>
    <person id="468" depart="468.00">
        <ride from="53655560#5" to="1382902406#2" lines="taxi" />
    </person>
    <person id="472" depart="472.00">
        <ride from="1411384585" to="1279020165" lines="taxi" />
    </person>
    <person id="486" depart="486.00">
        <ride from="1218672122#4" to="-211071512#0" lines="taxi" />
    </person>
    <person id="516" depart="516.00">
        <ride from="-210994269#0" to="-165271536#0" lines="taxi" />
    </person>
    <person id="521" depart="521.00">
        <ride from="53655547#2" to="-25720693" lines="taxi" />
    </person>
    <person id="523" depart="523.00">
        <ride from="272078615#2" to="1328701481#0" lines="taxi" />
    </person>
    <person id="524" depart="524.00">
        <ride from="1211159967#0" to="210994269#2" lines="taxi" />
    </person>
    <person id="525" depart="525.00">
        <ride from="-102566012#5" to="-820509839" lines="taxi" />
    </person>
    <person id="526" depart="526.00">
        <ride from="-541594063#0" to="-53655503" lines="taxi" />
    </person>
    <person id="529" depart="529.00">
        <ride from="-53655546#9" to="1159935920" lines="taxi" />
    </person>
    <person id="545" depart="545.00">
        <ride from="-53655509#2" to="-53655560#20" lines="taxi" />
    </person>
    <person id="548" depart="548.00">
        <ride from="53655560#16" to="1331302682#0" lines="taxi" />
    </person>
    <person id="549" depart="549.00">
        <ride from="53655547#1" to="53655549#0" lines="taxi" />
    </person>
    <person id="550" depart="550.00">
        <ride from="1253814494#1" to="776542380#1-AddedOnRampEdge" lines="taxi" />
    </person>
    <person id="555" depart="555.00">
        <ride from="-884054432#1" to="1264386180#2" lines="taxi" />
    </person>
    <person id="565" depart="565.00">
        <ride from="102566012#11" to="53655504#0" lines="taxi" />
    </person>
    <person id="567" depart="567.00">
        <ride from="1236187419" to="1411384588" lines="taxi" />
    </person>
    <person id="569" depart="569.00">
        <ride from="-608512851" to="1213201224#2" lines="taxi" />
    </person>
    <person id="587" depart="587.00">
        <ride from="-53655547#8" to="-541594063#5" lines="taxi" />
    </person>
    <person id="588" depart="588.00">
        <ride from="850142395#0" to="1323123993#1" lines="taxi" />
    </person>
    <person id="591" depart="591.00">
        <ride from="-211071545#3" to="53655560#12" lines="taxi" />
    </person>
    <person id="617" depart="617.00">
        <ride from="-165271536#2" to="1341231691" lines="taxi" />
    </person>
    <person id="624" depart="624.00">
        <ride from="-53655504#2" to="53655492#9" lines="taxi" />
    </person>
    <person id="625" depart="625.00">
        <ride from="1253814494#1" to="-102566012#12" lines="taxi" />
    </person>
    <person id="628" depart="628.00">
        <ride from="53655514#0" to="154518271" lines="taxi" />
    </person>
    <person id="644" depart="644.00">
        <ride from="53658196#2" to="102566012#2" lines="taxi" />
    </person>
    <person id="648" depart="648.00">
        <ride from="-53655546#8" to="53655560#7" lines="taxi" />
    </person>
    <person id="657" depart="657.00">
        <ride from="53655546#9" to="-53655560#10" lines="taxi" />
    </person>
    <person id="658" depart="658.00">
        <ride from="1079659299#1" to="53655561#0" lines="taxi" />
    </person>
    <person id="681" depart="681.00">
        <ride from="1116728181#1" to="1163556836#1" lines="taxi" />
    </person>
    <person id="686" depart="686.00">
        <ride from="1211159971" to="221195044#3" lines="taxi" />
    </person>
    <person id="687" depart="687.00">
        <ride from="53655526#0" to="1336792638" lines="taxi" />
    </person>
    <person id="696" depart="696.00">
        <ride from="165271538#8" to="608512851" lines="taxi" />
    </person>
    <person id="699" depart="699.00">
        <ride from="541594063#2" to="1352009118" lines="taxi" />
    </person>
    <person id="700" depart="700.00">
        <ride from="-272078615#7" to="-53655560#7" lines="taxi" />
    </person>
    <person id="701" depart="701.00">
        <ride from="-53655504#2" to="53658198" lines="taxi" />
    </person>
    <person id="712" depart="712.00">
        <ride from="53655560#9" to="221195029#3" lines="taxi" />
    </person>
    <person id="716" depart="716.00">
        <ride from="-53655515#2" to="-53655529#1" lines="taxi" />
    </person>
    <person id="729" depart="729.00">
        <ride from="1218672122#5" to="221195029#2" lines="taxi" />
    </person>
    <person id="737" depart="737.00">
        <ride from="-884054432#13" to="53655506#0" lines="taxi" />
    </person>
    <person id="740" depart="740.00">
        <ride from="-884065017#1" to="1284844276-AddedOnRampEdge" lines="taxi" />
    </person>
    <person id="743" depart="743.00">
        <ride from="1163556836#3" to="211071512#1" lines="taxi" />
    </person>
    <person id="756" depart="756.00">
        <ride from="53655514#1" to="53655553#0" lines="taxi" />
    </person>
    <person id="764" depart="764.00">
        <ride from="541594063#4" to="102562074#0" lines="taxi" />
    </person>
    <person id="769" depart="769.00">
        <ride from="53655527#3" to="-776830933#0" lines="taxi" />
    </person>
    <person id="771" depart="771.00">
        <ride from="154984257#1" to="53655497#2" lines="taxi" />
    </person>
    <person id="777" depart="777.00">
        <ride from="53655562#2" to="53655560#21" lines="taxi" />
    </person>
    <person id="778" depart="778.00">
        <ride from="210994239" to="53655508#2" lines="taxi" />
    </person>
    <person id="782" depart="782.00">
        <ride from="272078615#6" to="-1218672122#0" lines="taxi" />
    </person>
    <person id="786" depart="786.00">
        <ride from="1213201224#5" to="53655560#2" lines="taxi" />
    </person>
    <person id="789" depart="789.00">
        <ride from="-53655504#1" to="-53658196#3" lines="taxi" />
    </person>
    <person id="794" depart="794.00">
        <ride from="53655560#14" to="53655508#0" lines="taxi" />
    </person>
    <person id="798" depart="798.00">
        <ride from="-53658196#3" to="53655492#8" lines="taxi" />
    </person>
    <person id="799" depart="799.00">
        <ride from="-884054432#7" to="102566012#9" lines="taxi" />
    </person>
    <person id="800" depart="800.00">
        <ride from="776834763#2" to="541594063#5" lines="taxi" />
    </person>
    <person id="806" depart="806.00">
        <ride from="53655503" to="102566012#5" lines="taxi" />
    </person>
    <person id="809" depart="809.00">
        <ride from="165271537#2" to="776834762" lines="taxi" />
    </person>
    <person id="810" depart="810.00">
        <ride from="53561461" to="-53655503" lines="taxi" />
    </person>
    <person id="814" depart="814.00">
        <ride from="53655505#1" to="-211071545#2" lines="taxi" />
    </person>
    <person id="815" depart="815.00">
        <ride from="53655560#12" to="-102566012#12" lines="taxi" />
    </person>
    <person id="822" depart="822.00">
        <ride from="53655509#1" to="813269878" lines="taxi" />
    </person>
    <person id="831" depart="831.00">
        <ride from="187624544" to="1331302682#0" lines="taxi" />
    </person>
    <person id="834" depart="834.00">
        <ride from="-25720691#1" to="-53655528#0" lines="taxi" />
    </person>
    <person id="836" depart="836.00">
        <ride from="-53655553#1" to="53655526#2" lines="taxi" />
    </person>
    <person id="841" depart="841.00">
        <ride from="-210994269#3" to="25720691#1" lines="taxi" />
    </person>
    <person id="855" depart="855.00">
        <ride from="-53655497#5" to="-53655523#0" lines="taxi" />
    </person>
    <person id="867" depart="867.00">
        <ride from="-165271538#2" to="1282343427" lines="taxi" />
    </person>
    <person id="871" depart="871.00">
        <ride from="-1365018678" to="102566012#13" lines="taxi" />
    </person>
    <person id="874" depart="874.00">
        <ride from="1213201224#2" to="53655560#1" lines="taxi" />
    </person>
    <person id="882" depart="882.00">
        <ride from="-53655547#5" to="165271536#3" lines="taxi" />
    </person>
    <person id="883" depart="883.00">
        <ride from="154518276#1" to="53655514#1" lines="taxi" />
    </person>
    <person id="888" depart="888.00">
        <ride from="53655513#0" to="-25720691#1" lines="taxi" />
    </person>
    <person id="891" depart="891.00">
        <ride from="-1079659299#2" to="-53658196#1" lines="taxi" />
    </person>
    <person id="892" depart="892.00">
        <ride from="-211071545#2" to="-1218672122#5" lines="taxi" />
    </person>
    <person id="894" depart="894.00">
        <ride from="-154984257#0" to="53655527#8" lines="taxi" />
    </person>
    <person id="897" depart="897.00">
        <ride from="-165271538#10" to="1341231693" lines="taxi" />
    </person>
    <person id="899" depart="899.00">
        <ride from="53655522#2" to="-884065017#0" lines="taxi" />
    </person>
    <person id="907" depart="907.00">
        <ride from="53658195#2" to="-884065017#0" lines="taxi" />
    </person>
    <person id="912" depart="912.00">
        <ride from="210983279" to="-53655498#0" lines="taxi" />
    </person>
    <person id="916" depart="916.00">
        <ride from="53655510#1" to="-53655560#0" lines="taxi" />
    </person>
    <person id="919" depart="919.00">
        <ride from="-53655556" to="53655550#1" lines="taxi" />
    </person>
    <person id="922" depart="922.00">
        <ride from="-1079659299#2" to="813269879" lines="taxi" />
    </person>
    <person id="930" depart="930.00">
        <ride from="1382902406#1-AddedOffRampEdge" to="1331302682#5" lines="taxi" />
    </person>
    <person id="951" depart="951.00">
        <ride from="-102566012#8" to="1341231696#1" lines="taxi" />
    </person>
    <person id="956" depart="956.00">
        <ride from="-103755414#1" to="154518276#2" lines="taxi" />
    </person>
    <person id="961" depart="961.00">
        <ride from="-211071518#0" to="-53655513#1" lines="taxi" />
    </person>
    <person id="971" depart="971.00">
        <ride from="-165271538#0" to="-102566012#8" lines="taxi" />
    </person>
    <person id="972" depart="972.00">
        <ride from="-53655546#0" to="1336792639" lines="taxi" />
    </person>
    <person id="975" depart="975.00">
        <ride from="-211071512#1" to="154518276#0" lines="taxi" />
    </person>
    <person id="979" depart="979.00">
        <ride from="-1218672122#4" to="776830929#0" lines="taxi" />
    </person>
    <person id="980" depart="980.00">
        <ride from="-884054432#2" to="884054432#17" lines="taxi" />
    </person>
    <person id="982" depart="982.00">
        <ride from="53655502#0" to="1211159971" lines="taxi" />
    </person>
    <person id="999" depart="999.00">
        <ride from="541594075" to="53655502#0" lines="taxi" />
    </person>
    <person id="1016" depart="1016.00">
        <ride from="-820509839" to="1331302680#1-AddedOnRampEdge" lines="taxi" />
    </person>
    <person id="1020" depart="1020.00">
        <ride from="210994252#5" to="-53655560#18" lines="taxi" />
    </person>
    <person id="1029" depart="1029.00">
        <ride from="884054432#7" to="890210889#0" lines="taxi" />
    </person>
    <person id="1040" depart="1040.00">
        <ride from="1213201224#3" to="1336792638" lines="taxi" />
    </person>
    <person id="1047" depart="1047.00">
        <ride from="187624544" to="53658199" lines="taxi" />
    </person>
    <person id="1050" depart="1050.00">
        <ride from="-210994269#0" to="53655560#1" lines="taxi" />
    </person>
    <person id="1054" depart="1054.00">
        <ride from="1211159974" to="53655546#8" lines="taxi" />
    </person>
    <person id="1055" depart="1055.00">
        <ride from="884054432#9" to="1234512583" lines="taxi" />
    </person>
    <person id="1070" depart="1070.00">
        <ride from="-53655546#7" to="-53655527#3" lines="taxi" />
    </person>
    <person id="1082" depart="1082.00">
        <ride from="154518271" to="221195029#2" lines="taxi" />
    </person>
    <person id="1083" depart="1083.00">
        <ride from="210994265#0" to="210994297" lines="taxi" />
    </person>
    <person id="1088" depart="1088.00">
        <ride from="-210994269#0" to="-53655498#0" lines="taxi" />
    </person>
    <person id="1091" depart="1091.00">
        <ride from="-53655504#0" to="1163556836#3" lines="taxi" />
    </person>
    <person id="1096" depart="1096.00">
        <ride from="-884054432#2" to="1264386180#0" lines="taxi" />
    </person>
    <person id="1098" depart="1098.00">
        <ride from="-102566012#9" to="-53655502#1" lines="taxi" />
    </person>
    <person id="1100" depart="1100.00">
        <ride from="1341231696#1" to="1331302682#2" lines="taxi" />
    </person>
    <person id="1101" depart="1101.00">
        <ride from="371128542#0" to="1218672122#3" lines="taxi" />
    </person>
    <person id="1108" depart="1108.00">
        <ride from="-25720693" to="53655560#2" lines="taxi" />
    </person>
    <person id="1126" depart="1126.00">
        <ride from="272078615#3" to="-211071512#0" lines="taxi" />
    </person>
    <person id="1127" depart="1127.00">
        <ride from="884054432#4" to="53658195#1" lines="taxi" />
    </person>
    <person id="1138" depart="1138.00">
        <ride from="-102562074#4" to="53655560#18" lines="taxi" />
    </person>
    <person id="1166" depart="1166.00">
        <ride from="53655522#1" to="-211071547#1" lines="taxi" />
    </person>
    <person id="1168" depart="1168.00">
        <ride from="-53655503" to="53655560#17" lines="taxi" />
    </person>
    <person id="1169" depart="1169.00">
        <ride from="53655546#8" to="-53655497#4" lines="taxi" />
    </person>
    <person id="1171" depart="1171.00">
        <ride from="154518278" to="-102566012#7" lines="taxi" />
    </person>
    <person id="1179" depart="1179.00">
        <ride from="-884054432#2" to="-53655505#0" lines="taxi" />
    </person>
    <person id="1189" depart="1189.00">
        <ride from="-25720691#1" to="1336792639" lines="taxi" />
    </person>
    <person id="1190" depart="1190.00">
        <ride from="210994252#5" to="154518276#0" lines="taxi" />
    </person>
    <person id="1198" depart="1198.00">
        <ride from="53658196#3" to="1341231697#0" lines="taxi" />
    </person>
    <person id="1199" depart="1199.00">
        <ride from="211071567#0" to="1341231688#1" lines="taxi" />
    </person>
    <person id="1201" depart="1201.00">
        <ride from="-210994252#5" to="165271536#2" lines="taxi" />
    </person>
    <person id="1212" depart="1212.00">
        <ride from="53655527#8" to="-272078615#3" lines="taxi" />
    </person>
    <person id="1215" depart="1215.00">
        <ride from="1411384588" to="53655562#2" lines="taxi" />
    </person>
    <person id="1217" depart="1217.00">
        <ride from="-53561449" to="53655561#1" lines="taxi" />
    </person>
    <person id="1234" depart="1234.00">
        <ride from="1218672122#4" to="53655507#1" lines="taxi" />
    </person>
    <person id="1244" depart="1244.00">
        <ride from="1282343431" to="210994252#1" lines="taxi" />
    </person>
    <person id="1245" depart="1245.00">
        <ride from="1331302681" to="53655560#15" lines="taxi" />
    </person>
    <person id="1248" depart="1248.00">
        <ride from="-102566012#3" to="1213201224#5" lines="taxi" />
    </person>
    <person id="1252" depart="1252.00">
        <ride from="53655514#0" to="-211071567#0" lines="taxi" />
    </person>
    <person id="1254" depart="1254.00">
        <ride from="1331302680#0" to="-165271538#9" lines="taxi" />
    </person>
    <person id="1260" depart="1260.00">
        <ride from="-211071512#1" to="-53655497#5" lines="taxi" />
    </person>
    <person id="1264" depart="1264.00">
        <ride from="541594081#1" to="53655492#13" lines="taxi" />
    </person>
    <person id="1268" depart="1268.00">
        <ride from="-53655529#1" to="1284844276" lines="taxi" />
    </person>
    <person id="1269" depart="1269.00">
        <ride from="1213201223#6" to="165271536#1" lines="taxi" />
    </person>
    <person id="1270" depart="1270.00">
        <ride from="884054432#7" to="-53658197" lines="taxi" />
    </person>
    <person id="1272" depart="1272.00">
        <ride from="-272078615#4" to="-53655526#2" lines="taxi" />
    </person>
    <person id="1279" depart="1279.00">
        <ride from="1213201223#2" to="1264386180#3" lines="taxi" />
    </person>
    <person id="1282" depart="1282.00">
        <ride from="-53655505#0" to="-103755414#1" lines="taxi" />
    </person>
    <person id="1289" depart="1289.00">
        <ride from="-53561461" to="665481893" lines="taxi" />
    </person>
    <person id="1295" depart="1295.00">
        <ride from="-53655546#3" to="-541594063#6" lines="taxi" />
    </person>
    <person id="1303" depart="1303.00">
        <ride from="541594087#1" to="541594063#4" lines="taxi" />
    </person>
    <person id="1308" depart="1308.00">
        <ride from="-53655547#7" to="-884065017#0" lines="taxi" />
    </person>
    <person id="1310" depart="1310.00">
        <ride from="53655560#6" to="-165271538#6" lines="taxi" />
    </person>
    <person id="1320" depart="1320.00">
        <ride from="-53655547#0" to="210994252#2" lines="taxi" />
    </person>
    <person id="1330" depart="1330.00">
        <ride from="-53655560#8" to="-53655496#2" lines="taxi" />
    </person>
    <person id="1333" depart="1333.00">
        <ride from="775140683#0" to="53655560#19" lines="taxi" />
    </person>
    <person id="1338" depart="1338.00">
        <ride from="-53655502#1" to="-53655526#2" lines="taxi" />
    </person>
    <person id="1340" depart="1340.00">
        <ride from="884054432#15" to="221195044#2" lines="taxi" />
    </person>
    <person id="1341" depart="1341.00">
        <ride from="-53655546#6" to="890210889#0" lines="taxi" />
    </person>
    <person id="1342" depart="1342.00">
        <ride from="53561422" to="776830929#0" lines="taxi" />
    </person>
    <person id="1346" depart="1346.00">
        <ride from="-53561449" to="53655515#0" lines="taxi" />
    </person>
    <person id="1349" depart="1349.00">
        <ride from="884054432#8" to="-1218672122#3" lines="taxi" />
    </person>
    <person id="1362" depart="1362.00">
        <ride from="53655523#0" to="890210889#1" lines="taxi" />
    </person>
    <person id="1374" depart="1374.00">
        <ride from="210994252#5" to="210994304" lines="taxi" />
    </person>
    <person id="1378" depart="1378.00">
        <ride from="-211071545#3" to="-53658196#0" lines="taxi" />
    </person>
    <person id="1380" depart="1380.00">
        <ride from="53655508#4" to="53655515#2" lines="taxi" />
    </person>
    <person id="1384" depart="1384.00">
        <ride from="-53655523#0" to="1116432385#3" lines="taxi" />
    </person>
    <person id="1387" depart="1387.00">
        <ride from="-53655560#5" to="-1213201223#3" lines="taxi" />
    </person>
    <person id="1399" depart="1399.00">
        <ride from="102566012#12" to="165271538#4" lines="taxi" />
    </person>
    <person id="1406" depart="1406.00">
        <ride from="541594081#0" to="272078615#0" lines="taxi" />
    </person>
    <person id="1408" depart="1408.00">
        <ride from="53655547#6" to="-53655546#3" lines="taxi" />
    </person>
    <person id="1423" depart="1423.00">
        <ride from="210983340" to="-211071545#2" lines="taxi" />
    </person>
    <person id="1426" depart="1426.00">
        <ride from="1163556836#1" to="1323123993#0" lines="taxi" />
    </person>
    <person id="1439" depart="1439.00">
        <ride from="-53655556" to="-541594063#0" lines="taxi" />
    </person>
    <person id="1449" depart="1449.00">
        <ride from="775140683#2" to="53655492#7" lines="taxi" />
    </person>
    <person id="1491" depart="1491.00">
        <ride from="165269555#0" to="53658195#0" lines="taxi" />
    </person>
    <person id="1497" depart="1497.00">
        <ride from="-53655550#0" to="272078615#4" lines="taxi" />
    </person>
    <person id="1500" depart="1500.00">
        <ride from="-858564993" to="53658196#1" lines="taxi" />
    </person>
    <person id="1506" depart="1506.00">
        <ride from="-53655503" to="-53655560#6" lines="taxi" />
    </person>
    <person id="1509" depart="1509.00">
        <ride from="-884054432#6" to="53655504#2" lines="taxi" />
    </person>
    <person id="1510" depart="1510.00">
        <ride from="53655560#6" to="1328701481#2" lines="taxi" />
    </person>
    <person id="1518" depart="1518.00">
        <ride from="884054432#9" to="1163556836#2" lines="taxi" />
    </person>
    <person id="1524" depart="1524.00">
        <ride from="53561422" to="102566012#13" lines="taxi" />
    </person>
    <person id="1525" depart="1525.00">
        <ride from="-53561461" to="1163556836#2" lines="taxi" />
    </person>
    <person id="1534" depart="1534.00">
        <ride from="53655514#0" to="-53655497#1" lines="taxi" />
    </person>
    <person id="1539" depart="1539.00">
        <ride from="165269555#0" to="-154984257#0" lines="taxi" />
    </person>
    <person id="1548" depart="1548.00">
        <ride from="53655506#2" to="-272078615#0" lines="taxi" />
    </person>
    <person id="1552" depart="1552.00">
        <ride from="1331302682#4-AddedOnRampEdge" to="-53658197" lines="taxi" />
    </person>
    <person id="1555" depart="1555.00">
        <ride from="25720691#1" to="-53655513#2" lines="taxi" />
    </person>
    <person id="1557" depart="1557.00">
        <ride from="53655509#2" to="-211071545#3" lines="taxi" />
    </person>
    <person id="1561" depart="1561.00">
        <ride from="-53655546#7" to="-1264386180#1" lines="taxi" />
    </person>
    <person id="1563" depart="1563.00">
        <ride from="-884054432#14" to="53655527#2" lines="taxi" />
    </person>
    <person id="1564" depart="1564.00">
        <ride from="-211071512#0" to="53655547#8" lines="taxi" />
    </person>
    <person id="1574" depart="1574.00">
        <ride from="541594074#0" to="-25720691#1" lines="taxi" />
    </person>
    <person id="1575" depart="1575.00">
        <ride from="53561461" to="-165271538#6" lines="taxi" />
    </person>