<?xml version='1.0' encoding='utf-8'?>
<routes xmlns:xsi="http://www.w3.org/2001/XMLSchema-instance" xsi:noNamespaceSchemaLocation="http://sumo.dlr.de/xsd/routes_file.xsd">
    <person id="0" depart="0.00">
        <ride from="E14" to="E17" lines="taxi" />
    </person>
    <person id="1" depart="25.00">
        <ride from="A3B3" to="D1C1" lines="taxi" />
    </person>
    <person id="2" depart="50.00">
        <ride from="D2C2" to="D2D1" lines="taxi" />
    </person>
    <person id="3" depart="75.00">
        <ride from="D4D3" to="A3B3" lines="taxi" />
    </person>
    <person id="4" depart="100.00">
        <ride from="E12" to="B1B2" lines="taxi" />
    </person>
    <person id="5" depart="125.00">
        <ride from="A3B3" to="B4A4" lines="taxi" />
    </person>
    <person id="6" depart="150.00">
        <ride from="E13" to="B3A3" lines="taxi" />
    </person>
    <person id="7" depart="175.00">
        <ride from="C2C1" to="E16" lines="taxi" />
    </person>
    <person id="8" depart="200.00">
        <ride from="E17" to="E12" lines="taxi" />
    </person>
    <person id="9" depart="225.00">
        <ride from="D2D1" to="D2C2" lines="taxi" />
    </person>
    <person id="10" depart="250.00">
        <ride from="B4B3" to="B2C2" lines="taxi" />
    </person>
    <person id="11" depart="275.00">
        <ride from="E17" to="B3B4" lines="taxi" />
    </person>
    <person id="12" depart="300.00">
        <ride from="D3C3" to="A4B4" lines="taxi" />
    </person>
    <person id="13" depart="325.00">
        <ride from="B2B1" to="B1A1" lines="taxi" />
    </person>
    <person id="14" depart="350.00">
        <ride from="B4A4" to="C2C3" lines="taxi" />
    </person>
    <person id="15" depart="375.00">
        <ride from="D2D1" to="C1D1" lines="taxi" />
    </person>
    <person id="16" depart="400.00">
        <ride from="B3A3" to="D1C1" lines="taxi" />
    </person>
    <person id="17" depart="425.00">
        <ride from="A2A3" to="E18" lines="taxi" />
    </person>
    <person id="18" depart="450.00">
        <ride from="A3A4" to="A2A3" lines="taxi" />
    </person>
    <person id="19" depart="475.00">
        <ride from="D3D4" to="B1A1" lines="taxi" />
    </person>
    <person id="20" depart="500.00">
        <ride from="C2C1" to="C3D3" lines="taxi" />
    </person>
    <person id="21" depart="525.00">
        <ride from="D1C1" to="D4C4" lines="taxi" />
    </person>
    <person id="22" depart="550.00">
        <ride from="D2D1" to="A3A4" lines="taxi" />
    </person>
    <person id="23" depart="575.00">
        <ride from="C3D3" to="E12" lines="taxi" />
    </person>
    <person id="24" depart="600.00">
        <ride from="E13" to="C2D2" lines="taxi" />
    </person>
    <person id="25" depart="625.00">
        <ride from="E12" to="C3C2" lines="taxi" />
    </person>
    <person id="26" depart="650.00">
        <ride from="A1A2" to="C3C4" lines="taxi" />
    </person>
    <person id="27" depart="675.00">
        <ride from="B2C2" to="D1D2" lines="taxi" />
    </person>
    <person id="28" depart="700.00">
        <ride from="A2A3" to="E16" lines="taxi" />
    </person>
    <person id="29" depart="725.00">
        <ride from="A4A3" to="C1D1" lines="taxi" />
    </person>
    <person id="30" depart="750.00">
        <ride from="B3C3" to="E11" lines="taxi" />
    </person>
    <person id="31" depart="775.00">
        <ride from="C2D2" to="E13" lines="taxi" />
    </person>
    <person id="32" depart="800.00">
        <ride from="B3B4" to="C4D4" lines="taxi" />
    </person>
    <person id="33" depart="825.00">
        <ride from="A1B1" to="B2B3" lines="taxi" />
    </person>
    <person id="34" depart="850.00">
        <ride from="B2C2" to="C3C2" lines="taxi" />
    </person>
    <person id="35" depart="875.00">
        <ride from="B3B2" to="D3C3" lines="taxi" />
    </person>
    <person id="36" depart="900.00">
        <ride from="A4B4" to="E14" lines="taxi" />
    </person>
    <person id="37" depart="925.00">
        <ride from="E16" to="B1C1" lines="taxi" />
    </person>
    <person id="38" depart="950.00">
        <ride from="D2D1" to="A3A2" lines="taxi" />
    </person>
    <person id="39" depart="975.00">
        <ride from="C4D4" to="E13" lines="taxi" />
    </person>
    <person id="40" depart="1000.00">
        <ride from="A1A2" to="D2D1" lines="taxi" />
    </person>
    <person id="41" depart="1025.00">
        <ride from="E12" to="C2D2" lines="taxi" />
    </person>
    <person id="42" depart="1050.00">
        <ride from="D1C1" to="C1C2" lines="taxi" />
    </person>
    <person id="43" depart="1075.00">
        <ride from="B2B1" to="A1B1" lines="taxi" />
    </person>
    <person id="44" depart="1100.00">
        <ride from="C3C2" to="D3D4" lines="taxi" />
    </person>
    <person id="45" depart="1125.00">
        <ride from="C3B3" to="C3C4" lines="taxi" />
    </person>
    <person id="46" depart="1150.00">
        <ride from="D2D3" to="B1C1" lines="taxi" />
    </person>
    <person id="47" depart="1175.00">
        <ride from="D1C1" to="B1A1" lines="taxi" />
    </person>
    <person id="48" depart="1200.00">
        <ride from="B1C1" to="B2B1" lines="taxi" />
    </person>
    <person id="49" depart="1225.00">
        <ride from="E14" to="B2C2" lines="taxi" />
    </person>
    <person id="50" depart="1250.00">
        <ride from="B2B1" to="D3D4" lines="taxi" />
    </person>
    <person id="51" depart="1275.00">
        <ride from="B3C3" to="A4A3" lines="taxi" />
    </person>
    <person id="52" depart="1300.00">
        <ride from="D2C2" to="D3D4" lines="taxi" />
    </person>
    <person id="53" depart="1325.00">
        <ride from="C1C2" to="C3B3" lines="taxi" />
    </person>
    <person id="54" depart="1350.00">
        <ride from="D1C1" to="B2B1" lines="taxi" />
    </person>
    <person id="55" depart="1375.00">
        <ride from="B1A1" to="B3C3" lines="taxi" />
    </person>
    <person id="56" depart="1400.00">
        <ride from="D2D1" to="B1B2" lines="taxi" />
    </person>
    <person id="57" depart="1425.00">
        <ride from="C4B4" to="A1B1" lines="taxi" />
    </person>
    <person id="58" depart="1450.00">
        <ride from="A3A4" to="A3A2" lines="taxi" />
    </person>
    <person id="59" depart="1475.00">
        <ride from="E15" to="D2C2" lines="taxi" />
    </person>
    <person id="60" depart="1500.00">
        <ride from="A2A1" to="E16" lines="taxi" />
    </person>
    <person id="61" depart="1525.00">
        <ride from="A2A3" to="C4B4" lines="taxi" />
    </person>
    <person id="62" depart="1550.00">
        <ride from="C2C3" to="D1C1" lines="taxi" />
    </person>
    <person id="63" depart="1575.00">
        <ride from="E14" to="D2D1" lines="taxi" />
    </person>
    <person id="64" depart="1600.00">
        <ride from="B3B2" to="A4B4" lines="taxi" />
    </person>
    <person id="65" depart="1625.00">
        <ride from="C4B4" to="D2D3" lines="taxi" />
    </person>
    <person id="66" depart="1650.00">
        <ride from="B2A2" to="C1B1" lines="taxi" />
    </person>
    <person id="67" depart="1675.00">
        <ride from="C2D2" to="B2A2" lines="taxi" />
    </person>
    <person id="68" depart="1700.00">
        <ride from="C1D1" to="D4C4" lines="taxi" />
    </person>
    <person id="69" depart="1725.00">
        <ride from="D1C1" to="D4D3" lines="taxi" />
    </person>
    <person id="70" depart="1750.00">
        <ride from="D1D2" to="A3B3" lines="taxi" />
    </person>
    <person id="71" depart="1775.00">
        <ride from="B3C3" to="B4A4" lines="taxi" />
    </person>
    <person id="72" depart="1800.00">
        <ride from="D1D2" to="A3B3" lines="taxi" />
    </person>
    <person id="73" depart="1825.00">
        <ride from="B3B2" to="C2C1" lines="taxi" />
    </person>
    <person id="74" depart="1850.00">
        <ride from="B3A3" to="C2D2" lines="taxi" />
    </person>
    <person id="75" depart="1875.00">
        <ride from="C3C2" to="D2D1" lines="taxi" />
    </person>
    <person id="76" depart="1900.00">
        <ride from="D4D3" to="B4B3" lines="taxi" />
    </person>
    <person id="77" depart="1925.00">
        <ride from="C1B1" to="E13" lines="taxi" />
    </person>
    <person id="78" depart="1950.00">
        <ride from="A3A4" to="E15" lines="taxi" />
    </person>
    <person id="79" depart="1975.00">
        <ride from="D4D3" to="D3D4" lines="taxi" />
    </person>
    <person id="80" depart="2000.00">
        <ride from="B2B1" to="D3D4" lines="taxi" />
    </person>
    <person id="81" depart="2025.00">
        <ride from="A2B2" to="B1C1" lines="taxi" />
    </person>
    <person id="82" depart="2050.00">
        <ride from="C2C1" to="B2C2" lines="taxi" />
    </person>
    <person id="83" depart="2075.00">
        <ride from="E14" to="C2D2" lines="taxi" />
    </person>
    <person id="84" depart="2100.00">
        <ride from="C3B3" to="B2C2" lines="taxi" />
    </person>
    <person id="85" depart="2125.00">
        <ride from="C1D1" to="B4A4" lines="taxi" />
    </person>
    <person id="86" depart="2150.00">
        <ride from="D1D2" to="B3B4" lines="taxi" />
    </person>
    <person id="87" depart="2175.00">
        <ride from="E18" to="B1B2" lines="taxi" />
    </person>
    <person id="88" depart="2200.00">
        <ride from="A4A3" to="E11" lines="taxi" />
    </person>
    <person id="89" depart="2225.00">
        <ride from="B1B2" to="B4A4" lines="taxi" />
    </person>
    <person id="90" depart="2250.00">
        <ride from="A3A4" to="D1C1" lines="taxi" />
    </person>
    <person id="91" depart="2275.00">
        <ride from="A3A2" to="B2B1" lines="taxi" />
    </person>
    <person id="92" depart="2300.00">
        <ride from="C3D3" to="E11" lines="taxi" />
    </person>
    <person id="93" depart="2325.00">
        <ride from="C4C3" to="C2B2" lines="taxi" />
    </person>
    <person id="94" depart="2350.00">
        <ride from="D3D4" to="C1C2" lines="taxi" />
    </person>
    <person id="95" depart="2375.00">
        <ride from="E18" to="A4A3" lines="taxi" />
    </person>
    <person id="96" depart="2400.00">
        <ride from="A4B4" to="D1D2" lines="taxi" />
    </person>
    <person id="97" depart="2425.00">
        <ride from="B4B3" to="A3A4" lines="taxi" />
    </person>
    <person id="98" depart="2450.00">
        <ride from="D3D2" to="B4B3" lines="taxi" />
    </person>
    <person id="99" depart="2475.00">
        <ride from="E12" to="B2B1" lines="taxi" />
    </person>
    <person id="100" depart="2500.00">
        <ride from="C4C3" to="A1B1" lines="taxi" />
    </person>
    <person id="101" depart="2525.00">
        <ride from="B2B3" to="B4C4" lines="taxi" />
    </person>
    <person id="102" depart="2550.00">
        <ride from="B2C2" to="D3C3" lines="taxi" />
    </person>
    <person id="103" depart="2575.00">
        <ride from="D4C4" to="C3B3" lines="taxi" />
    </person>
    <person id="104" depart="2600.00">
        <ride from="A3A4" to="D3D4" lines="taxi" />
    </person>
    <person id="105" depart="2625.00">
        <ride from="B3C3" to="A3A2" lines="taxi" />
    </person>
    <person id="106" depart="2650.00">
        <ride from="B4B3" to="E18" lines="taxi" />
    </person>
    <person id="107" depart="2675.00">
        <ride from="B2C2" to="C4B4" lines="taxi" />
    </person>
    <person id="108" depart="2700.00">
        <ride from="B4C4" to="E17" lines="taxi" />
    </person>
    <person id="109" depart="2725.00">
        <ride from="D4D3" to="C3B3" lines="taxi" />
    </person>
    <person id="110" depart="2750.00">
        <ride from="A1B1" to="A2B2" lines="taxi" />
    </person>
    <person id="111" depart="2775.00">
        <ride from="C4C3" to="D2C2" lines="taxi" />
    </person>
    <person id="112" depart="2800.00">
        <ride from="E15" to="D1D2" lines="taxi" />
    </person>
    <person id="113" depart="2825.00">
        <ride from="B3B2" to="E13" lines="taxi" />
    </person>
    <person id="114" depart="2850.00">
        <ride from="E12" to="A4A3" lines="taxi" />
    </person>
    <person id="115" depart="2875.00">
        <ride from="C1B1" to="A2A1" lines="taxi" />
    </person>
    <person id="116" depart="2900.00">
        <ride from="E14" to="A3A4" lines="taxi" />
    </person>
    <person id="117" depart="2925.00">
        <ride from="B4A4" to="A3A2" lines="taxi" />
    </person>
    <person id="118" depart="2950.00">
        <ride from="D4D3" to="D4C4" lines="taxi" />
    </person>
    <person id="119" depart="2975.00">
        <ride from="B1C1" to="C1C2" lines="taxi" />
    </person>
    <person id="120" depart="3000.00">
        <ride from="B3B4" to="D3D4" lines="taxi" />
    </person>
    <person id="121" depart="3025.00">
        <ride from="D1C1" to="B4A4" lines="taxi" />
    </person>
    <person id="122" depart="3050.00">
        <ride from="B2C2" to="C2C1" lines="taxi" />
    </person>
    <person id="123" depart="3075.00">
        <ride from="D2D3" to="B3C3" lines="taxi" />
    </person>
    <person id="124" depart="3100.00">
        <ride from="A3A4" to="A4B4" lines="taxi" />
    </person>
    <person id="125" depart="3125.00">
        <ride from="B1B2" to="D3C3" lines="taxi" />
    </person>
    <person id="126" depart="3150.00">
        <ride from="A4B4" to="C4C3" lines="taxi" />
    </person>
    <person id="127" depart="3175.00">
        <ride from="C2C3" to="B1C1" lines="taxi" />
    </person>
    <person id="128" depart="3200.00">
        <ride from="B2B1" to="C3C2" lines="taxi" />
    </person>
    <person id="129" depart="3225.00">
        <ride from="C1D1" to="B4A4" lines="taxi" />
    </person>
    <person id="130" depart="3250.00">
        <ride from="C2B2" to="E11" lines="taxi" />
    </person>
    <person id="131" depart="3275.00">
        <ride from="D1D2" to="D2D1" lines="taxi" />
    </person>
    <person id="132" depart="3300.00">
        <ride from="E14" to="C3C4" lines="taxi" />
    </person>
    <person id="133" depart="3325.00">
        <ride from="E17" to="B3A3" lines="taxi" />
    </person>
    <person id="134" depart="3350.00">
        <ride from="B3C3" to="D2D1" lines="taxi" />
    </person>
    <person id="135" depart="3375.00">
        <ride from="B3A3" to="D2D1" lines="taxi" />
    </person>
    <person id="136" depart="3400.00">
        <ride from="E18" to="E13" lines="taxi" />
    </person>
    <person id="137" depart="3425.00">
        <ride from="A4B4" to="B2B3" lines="taxi" />
    </person>
    <person id="138" depart="3450.00">
        <ride from="E15" to="D2C2" lines="taxi" />
    </person>
    <person id="139" depart="3475.00">
        <ride from="E14" to="E16" lines="taxi" />
    </person>
    <person id="140" depart="3500.00">
        <ride from="C3C4" to="E14" lines="taxi" />
    </person>
    <person id="141" depart="3525.00">
        <ride from="B4B3" to="D2C2" lines="taxi" />
    </person>
    <person id="142" depart="3550.00">
        <ride from="C4D4" to="B1C1" lines="taxi" />
    </person>
    <person id="143" depart="3575.00">
        <ride from="C1B1" to="D2D3" lines="taxi" />
    </person>
    <person id="144" depart="3600.00">
        <ride from="B3C3" to="D4D3" lines="taxi" />
    </person>
    <person id="145" depart="3625.00">
        <ride from="A4A3" to="B3B4" lines="taxi" />
    </person>
    <person id="146" depart="3650.00">
        <ride from="B3B2" to="C1C2" lines="taxi" />
    </person>
    <person id="147" depart="3675.00">
        <ride from="D2C2" to="A2B2" lines="taxi" />
    </person>
    <person id="148" depart="3700.00">
        <ride from="C1C2" to="A2A3" lines="taxi" />
    </person>
    <person id="149" depart="3725.00">
        <ride from="C2C3" to="D3C3" lines="taxi" />
    </person>
    <person id="150" depart="3750.00">
        <ride from="E12" to="E11" lines="taxi" />
    </person>
    <person id="151" depart="3775.00">
        <ride from="B1C1" to="C2C1" lines="taxi" />
    </person>
    <person id="152" depart="3800.00">
        <ride from="C3C4" to="C2B2" lines="taxi" />
    </person>
    <person id="153" depart="3825.00">
        <ride from="C2C3" to="C1C2" lines="taxi" />
    </person>
    <person id="154" depart="3850.00">
        <ride from="A4A3" to="E15" lines="taxi" />
    </person>
    <person id="155" depart="3875.00">
        <ride from="B1B2" to="B2B1" lines="taxi" />
    </person>
    <person id="156" depart="3900.00">
        <ride from="B2A2" to="E12" lines="taxi" />
    </person>
    <person id="157" depart="3925.00">
        <ride from="E15" to="C2C3" lines="taxi" />
    </person>
    <person id="158" depart="3950.00">
        <ride from="A4A3" to="C3D3" lines="taxi" />
    </person>
    <person id="159" depart="3975.00">
        <ride from="A2A3" to="E12" lines="taxi" />
    </person>
    <person id="160" depart="4000.00">
        <ride from="D1D2" to="D3C3" lines="taxi" />
    </person>
    <person id="161" depart="4025.00">
        <ride from="D2D3" to="B3C3" lines="taxi" />
    </person>
    <person id="162" depart="4050.00">
        <ride from="C2B2" to="D4D3" lines="taxi" />
    </person>
    <person id="163" depart="4075.00">
        <ride from="C2B2" to="D3D2" lines="taxi" />
    </person>
    <person id="164" depart="4100.00">
        <ride from="C4D4" to="C1C2" lines="taxi" />
    </person>
    <person id="165" depart="4125.00">
        <ride from="D2C2" to="E14" lines="taxi" />
    </person>
    <person id="166" depart="4150.00">
        <ride from="C1D1" to="A2A3" lines="taxi" />
    </person>
    <person id="167" depart="4175.00">
        <ride from="A1A2" to="B3C3" lines="taxi" />
    </person>
    <person id="168" depart="4200.00">
        <ride from="E12" to="E15" lines="taxi" />
    </person>
    <person id="169" depart="4225.00">
        <ride from="B2A2" to="B4A4" lines="taxi" />
    </person>
    <person id="170" depart="4250.00">
        <ride from="A1B1" to="E18" lines="taxi" />
    </person>
    <person id="171" depart="4275.00">
        <ride from="E12" to="A3A4" lines="taxi" />
    </person>
    <person id="172" depart="4300.00">
        <ride from="A1A2" to="D2C2" lines="taxi" />
    </person>
    <person id="173" depart="4325.00">
        <ride from="D3D4" to="C2C1" lines="taxi" />
    </person>
    <person id="174" depart="4350.00">
        <ride from="B4C4" to="C1C2" lines="taxi" />
    </person>
    <person id="175" depart="4375.00">
        <ride from="D2D3" to="C2C3" lines="taxi" />
    </person>
    <person id="176" depart="4400.00">
        <ride from="E15" to="D3D2" lines="taxi" />
    </person>
    <person id="177" depart="4425.00">
        <ride from="C2D2" to="E18" lines="taxi" />
    </person>
    <person id="178" depart="4450.00">
        <ride from="C2D2" to="D1D2" lines="taxi" />
    </person>
    <person id="179" depart="4475.00">
        <ride from="A2B2" to="A3A2" lines="taxi" />
    </person>
    <person id="180" depart="4500.00">
        <ride from="C1D1" to="C4D4" lines="taxi" />
    </person>
    <person id="181" depart="4525.00">
        <ride from="C2B2" to="B1A1" lines="taxi" />
    </person>
    <person id="182" depart="4550.00">
        <ride from="A4A3" to="A2B2" lines="taxi" />
    </person>
    <person id="183" depart="4575.00">
        <ride from="B3C3" to="B1C1" lines="taxi" />
    </person>
    <person id="184" depart="4600.00">
        <ride from="A4B4" to="C1B1" lines="taxi" />
    </person>
    <person id="185" depart="4625.00">
        <ride from="D4C4" to="D2D3" lines="taxi" />
    </person>
    <person id="186" depart="4650.00">
        <ride from="C4C3" to="D2D3" lines="taxi" />
    </person>
    <person id="187" depart="4675.00">
        <ride from="E15" to="B3A3" lines="taxi" />
    </person>
    <person id="188" depart="4700.00">
        <ride from="A3B3" to="B4A4" lines="taxi" />
    </person>
    <person id="189" depart="4725.00">
        <ride from="E15" to="A3B3" lines="taxi" />
    </person>
    <person id="190" depart="4750.00">
        <ride from="C4B4" to="E15" lines="taxi" />
    </person>
    <person id="191" depart="4775.00">
        <ride from="E14" to="B3A3" lines="taxi" />
    </person>
    <person id="192" depart="4800.00">
        <ride from="C1C2" to="B4B3" lines="taxi" />
    </person>
    <person id="193" depart="4825.00">
        <ride from="A1A2" to="B4B3" lines="taxi" />
    </person>
    <person id="194" depart="4850.00">
        <ride from="D3D4" to="E15" lines="taxi" />
    </person>
    <person id="195" depart="4875.00">
        <ride from="B4B3" to="E13" lines="taxi" />
    </person>
    <person id="196" depart="4900.00">
        <ride from="A1A2" to="D3D2" lines="taxi" />
    </person>
    <person id="197" depart="4925.00">
        <ride from="E14" to="B2C2" lines="taxi" />
    </person>
    <person id="198" depart="4950.00">
        <ride from="E14" to="B1B2" lines="taxi" />
    </person>
    <person id="199" depart="4975.00">
        <ride from="D2C2" to="C2C1" lines="taxi" />
    </person>
</routes>