<?xml version="1.0" encoding="UTF-8"?>

<!-- generated on 2025-08-27 21:57:02 by Eclipse SUMO netedit Version 1.24.0
-->

<routes xmlns:xsi="http://www.w3.org/2001/XMLSchema-instance" xsi:noNamespaceSchemaLocation="http://sumo.dlr.de/xsd/routes_file.xsd">
    <!-- VTypes -->
    <vType id="myTaxi" vClass="taxi" color="yellow">
        <param key="has.taxi.device" value="true"/>
    </vType>
    <!-- Vehicles, persons and containers (sorted by depart) -->
    <trip id="t_0" type="myTaxi" depart="10.00" from="A3A2" to="A2A1">
        <stop lane="A3A2_0" startPos="24.37" endPos="34.37" triggered="person"/>
    </trip>
    <trip id="t_1" type="myTaxi" depart="10.00" from="D2D3" to="D3D4">
        <stop lane="D3D4_0" startPos="52.98" endPos="62.98" triggered="person"/>
    </trip>
</routes>
