<?xml version='1.0' encoding='utf-8'?>
<routes xmlns:xsi="http://www.w3.org/2001/XMLSchema-instance" xsi:noNamespaceSchemaLocation="http://sumo.dlr.de/xsd/routes_file.xsd">
    <person id="6" depart="6.00">
        <ride from="-1213201223#5" to="-53655560#3" lines="taxi" />
    </person>
    <person id="27" depart="27.00">
        <ride from="-53655546#0" to="53655515#1" lines="taxi" />
    </person>
    <person id="47" depart="47.00">
        <ride from="-103755414#0" to="53655508#0" lines="taxi" />
    </person>
    <person id="57" depart="57.00">
        <ride from="53655551" to="165271538#0" lines="taxi" />
    </person>
    <person id="58" depart="58.00">
        <ride from="53655560#6" to="154518278" lines="taxi" />
    </person>
    <person id="68" depart="68.00">
        <ride from="165271538#0" to="53655515#2" lines="taxi" />
    </person>
    <person id="78" depart="78.00">
        <ride from="-541594063#6" to="-53655497#3" lines="taxi" />
    </person>
    <person id="85" depart="85.00">
        <ride from="1211159976" to="102562074#0" lines="taxi" />
    </person>
    <person id="87" depart="87.00">
        <ride from="-53655560#0" to="1253814494#1" lines="taxi" />
    </person>
    <person id="94" depart="94.00">
        <ride from="1323123993#0" to="-541594063#5" lines="taxi" />
    </person>
    <person id="107" depart="107.00">
        <ride from="-210994252#1" to="-53655553#1" lines="taxi" />
    </person>
    <person id="112" depart="112.00">
        <ride from="-53658195#2" to="53655504#3" lines="taxi" />
    </person>
    <person id="116" depart="116.00">
        <ride from="-210983340" to="-541594063#3" lines="taxi" />
    </person>
    <person id="127" depart="127.00">
        <ride from="53655505#2" to="-53658195#0" lines="taxi" />
    </person>
    <person id="132" depart="132.00">
        <ride from="-102566012#1" to="53655560#13" lines="taxi" />
    </person>
    <person id="145" depart="145.00">
        <ride from="-53655523#2" to="776830931" lines="taxi" />
    </person>
    <person id="157" depart="157.00">
        <ride from="-1213201222" to="-53655560#13" lines="taxi" />
    </person>
    <person id="188" depart="188.00">
        <ride from="-53655560#4" to="-1213201223#1" lines="taxi" />
    </person>
    <person id="189" depart="189.00">
        <ride from="1218672122#0" to="211071567#2" lines="taxi" />
    </person>
    <person id="193" depart="193.00">
        <ride from="53655546#3" to="53655560#11" lines="taxi" />
    </person>
    <person id="207" depart="207.00">
        <ride from="165271538#11" to="-53655504#1" lines="taxi" />
    </person>
    <person id="210" depart="210.00">
        <ride from="1213201224#0" to="165271538#8" lines="taxi" />
    </person>
    <person id="211" depart="211.00">
        <ride from="1218672122#3" to="-53658196#2" lines="taxi" />
    </person>
    <person id="279" depart="279.00">
        <ride from="-53655560#12" to="-272078615#4" lines="taxi" />
    </person>
    <person id="280" depart="280.00">
        <ride from="165271536#1" to="53655551" lines="taxi" />
    </person>
    <person id="282" depart="282.00">
        <ride from="1323123991" to="53655510#1" lines="taxi" />
    </person>
    <person id="294" depart="294.00">
        <ride from="-210983358" to="211071567#1" lines="taxi" />
    </person>
    <person id="295" depart="295.00">
        <ride from="-165271536#2" to="-53655513#2" lines="taxi" />
    </person>
    <person id="304" depart="304.00">
        <ride from="53655527#6" to="850142395#0" lines="taxi" />
    </person>
    <person id="339" depart="339.00">
        <ride from="53655549#0" to="-53658195#0" lines="taxi" />
    </person>
    <person id="358" depart="358.00">
        <ride from="165271537#2" to="102566012#2" lines="taxi" />
    </person>
    <person id="364" depart="364.00">
        <ride from="53655530#1" to="53655492#8" lines="taxi" />
    </person>
</routes>