<?xml version='1.0' encoding='utf-8'?>
<routes xmlns:xsi="http://www.w3.org/2001/XMLSchema-instance" xsi:noNamespaceSchemaLocation="http://sumo.dlr.de/xsd/routes_file.xsd">
    <person id="0" depart="6.00">
        <ride from="-1213201223#5" to="-53655560#3" lines="taxi" />
    </person>
    <person id="1" depart="27.00">
        <ride from="-53655546#0" to="53655515#1" lines="taxi" />
    </person>
    <person id="2" depart="47.00">
        <ride from="-103755414#0" to="53655508#0" lines="taxi" />
    </person>
    <person id="3" depart="57.00">
        <ride from="53655551" to="165271538#0" lines="taxi" />
    </person>
    <person id="4" depart="58.00">
        <ride from="53655560#6" to="154518278" lines="taxi" />
    </person>
    <person id="5" depart="68.00">
        <ride from="165271538#0" to="53655515#2" lines="taxi" />
    </person>
    <person id="6" depart="78.00">
        <ride from="-541594063#6" to="-53655497#3" lines="taxi" />
    </person>
    <person id="7" depart="85.00">
        <ride from="1211159976" to="102562074#0" lines="taxi" />
    </person>
    <person id="8" depart="87.00">
        <ride from="-53655560#0" to="1253814494#1" lines="taxi" />
    </person>
    <person id="9" depart="94.00">
        <ride from="1323123993#0" to="-541594063#5" lines="taxi" />
    </person>
    <person id="10" depart="107.00">
        <ride from="-210994252#1" to="-53655553#1" lines="taxi" />
    </person>
    <person id="11" depart="112.00">
        <ride from="-53658195#2" to="53655504#3" lines="taxi" />
    </person>
    <person id="12" depart="116.00">
        <ride from="-210983340" to="-541594063#3" lines="taxi" />
    </person>
    <person id="13" depart="127.00">
        <ride from="53655505#2" to="-53658195#0" lines="taxi" />
    </person>
    <person id="14" depart="132.00">
        <ride from="-102566012#1" to="53655560#13" lines="taxi" />
    </person>
    <person id="15" depart="145.00">
        <ride from="-53655523#2" to="776830931" lines="taxi" />
    </person>
    <person id="16" depart="157.00">
        <ride from="-1213201222" to="-53655560#13" lines="taxi" />
    </person>
    <person id="17" depart="188.00">
        <ride from="-53655560#4" to="-1213201223#1" lines="taxi" />
    </person>
    <person id="18" depart="189.00">
        <ride from="1218672122#0" to="211071567#2" lines="taxi" />
    </person>
    <person id="19" depart="193.00">
        <ride from="53655546#3" to="53655560#11" lines="taxi" />
    </person>
    <person id="20" depart="207.00">
        <ride from="165271538#11" to="-53655504#1" lines="taxi" />
    </person>
    <person id="21" depart="210.00">
        <ride from="1213201224#0" to="165271538#8" lines="taxi" />
    </person>
    <person id="22" depart="211.00">
        <ride from="1218672122#3" to="-53658196#2" lines="taxi" />
    </person>
    <person id="23" depart="279.00">
        <ride from="-53655560#12" to="-272078615#4" lines="taxi" />
    </person>
    <person id="24" depart="280.00">
        <ride from="165271536#1" to="53655551" lines="taxi" />
    </person>
    <person id="25" depart="282.00">
        <ride from="1323123991" to="53655510#1" lines="taxi" />
    </person>
    <person id="26" depart="294.00">
        <ride from="-210983358" to="211071567#1" lines="taxi" />
    </person>
    <person id="27" depart="295.00">
        <ride from="-165271536#2" to="-53655513#2" lines="taxi" />
    </person>
    <person id="28" depart="304.00">
        <ride from="53655527#6" to="850142395#0" lines="taxi" />
    </person>
    <person id="29" depart="339.00">
        <ride from="53655549#0" to="-53658195#0" lines="taxi" />
    </person>
    <person id="30" depart="358.00">
        <ride from="165271537#2" to="102566012#2" lines="taxi" />
    </person>
</routes>