<?xml version='1.0' encoding='utf-8'?>
<routes xmlns:xsi="http://www.w3.org/2001/XMLSchema-instance" xsi:noNamespaceSchemaLocation="http://sumo.dlr.de/xsd/routes_file.xsd">
    <person id="2" depart="47.00">
        <ride from="-103755414#0" to="53655508#0" lines="taxi" />
    </person>
    <person id="6" depart="78.00">
        <ride from="-541594063#6" to="-53655497#3" lines="taxi" />
    </person>
    <person id="11" depart="112.00">
        <ride from="-53658195#2" to="53655504#3" lines="taxi" />
    </person>
    <person id="12" depart="116.00">
        <ride from="-210983340" to="-541594063#3" lines="taxi" />
    </person>
    <person id="15" depart="145.00">
        <ride from="-53655523#2" to="776830931" lines="taxi" />
    </person>
    <person id="22" depart="211.00">
        <ride from="1218672122#3" to="-53658196#2" lines="taxi" />
    </person>
    <person id="29" depart="339.00">
        <ride from="53655549#0" to="-53658195#0" lines="taxi" />
    </person>
</routes>