<?xml version="1.0" encoding="UTF-8"?>

<!-- generated on 2025-08-27 22:04:05 by Eclipse SUMO duarouter Version 1.24.0
<duarouterConfiguration xmlns:xsi="http://www.w3.org/2001/XMLSchema-instance" xsi:noNamespaceSchemaLocation="http://sumo.dlr.de/xsd/duarouterConfiguration.xsd">

    <input>
        <net-file value="map.net.xml"/>
        <route-files value="persontrips.xml"/>
    </input>

    <output>
        <output-file value="persontrips.rou.xml"/>
    </output>

    <report>
        <ignore-errors value="true"/>
    </report>

</duarouterConfiguration>
-->

<routes xmlns:xsi="http://www.w3.org/2001/XMLSchema-instance" xsi:noNamespaceSchemaLocation="http://sumo.dlr.de/xsd/routes_file.xsd">
    <person id="0" depart="0.00">
        <walk edges="C2D2 E12 C1C2 C1B1 B1A1 A1B1"/>
    </person>
    <person id="1" depart="1.00">
        <walk edges="B2A2 B1B2 B1A1"/>
    </person>
    <person id="2" depart="2.00">
        <walk edges="C4B4 C3C4 C3C2"/>
    </person>
    <person id="3" depart="3.00">
        <walk edges="D2D3 D2C2 E11 E14 B2C2 A2B2"/>
    </person>
    <person id="4" depart="4.00">
        <walk edges="B3C3 E16 B2B3 B2B1 B1A1 A1B1"/>
    </person>
    <person id="5" depart="5.00">
        <walk edges="B1A1 C1B1"/>
    </person>
    <person id="6" depart="6.00">
        <walk edges="A1B1 A1A2 A2A3 A3A4 A4B4"/>
    </person>
    <person id="7" depart="7.00">
        <walk edges="C3B3 C3C2 E14 E13 C1C2 C1D1"/>
    </person>
    <person id="8" depart="8.00">
        <walk edges="B1A1 C1B1 C1C2 C2C1"/>
    </person>
    <person id="9" depart="9.00">
        <walk edges="D1C1 C1B1 B1A1 A1A2"/>
    </person>
    <person id="10" depart="10.00">
        <walk edges="D1C1 D2D1 D2C2 E11 C3C2 C3C4"/>
    </person>
    <person id="11" depart="11.00">
        <walk edges="B2C2 B2B3 E17 A3B3"/>
    </person>
    <person id="12" depart="12.00">
        <walk edges="D3D4 C3D3 C3C2 E14 B2C2"/>
    </person>
    <person id="13" depart="13.00">
        <walk edges="A2B2"/>
    </person>
    <person id="14" depart="14.00">
        <walk edges="D2C2 E12 C2C1"/>
    </person>
    <person id="15" depart="15.00">
        <ride from="D1C1" to="C4B4" lines="taxi"/>
    </person>
    <person id="16" depart="16.00">
        <ride from="C1C2" to="D4C4" lines="taxi"/>
    </person>
    <person id="17" depart="17.00">
        <walk edges="B3B2 B2B3 B2C2 E13 C1C2 C1D1"/>
    </person>
    <person id="18" depart="18.00">
        <walk edges="D1D2 D2D1 D2C2 E11 C2C3"/>
    </person>
    <person id="19" depart="19.00">
        <walk edges="D2D1 D2C2 E11 E14 C2B2"/>
    </person>
    <person id="20" depart="20.00">
        <walk edges="C3C4 C3B3 E16 B2B3 B2A2 A2A1"/>
    </person>
    <person id="21" depart="21.00">
        <walk edges="B1A1 B2B1 B2A2"/>
    </person>
    <person id="22" depart="22.00">
        <walk edges="A2A3 B2A2 B1B2"/>
    </person>
    <person id="23" depart="23.00">
        <walk edges="A2B2 B2A2"/>
    </person>
    <person id="24" depart="24.00">
        <walk edges="C2D2 E11 E14 B2C2 B2B3 E17 B3A3"/>
    </person>
    <person id="25" depart="25.00">
        <walk edges="B3A3 E17 B2B3 B2B1 B1A1"/>
    </person>
    <person id="26" depart="26.00">
        <ride from="B1C1" to="D3D2" lines="taxi"/>
    </person>
    <person id="27" depart="27.00">
        <walk edges="C3B3 C3C2 C2C3"/>
    </person>
    <person id="28" depart="28.00">
        <walk edges="A4A3 A4B4 B4B3 E15 C3B3 C3D3"/>
    </person>
    <person id="29" depart="29.00">
        <walk edges="A3B3 E17 B3B2"/>
    </person>
    <person id="30" depart="30.00">
        <walk edges="D4D3 D3D2 D2C2 C2D2"/>
    </person>
    <person id="31" depart="31.00">
        <walk edges="C1D1 C1C2 E12 E11 C3C2"/>
    </person>
    <person id="32" depart="32.00">
        <walk edges="D2C2 E11 C3C2 C3C4 C4D4"/>
    </person>
    <person id="33" depart="33.00">
        <walk edges="B1A1 A1B1"/>
    </person>
    <person id="34" depart="34.00">
        <walk edges="B2B3 B1B2 B1C1"/>
    </person>
    <person id="35" depart="35.00">
        <walk edges="B1A1 B2B1 B2B3 E16 C3B3 C3D3 D3D4"/>
    </person>
    <person id="36" depart="36.00">
        <walk edges="D2D3 D2C2 E11 E14 B2C2 B2B3"/>
    </person>
    <person id="37" depart="37.00">
        <walk edges="C3B3 E16 B3B2"/>
    </person>
    <person id="38" depart="38.00">
        <walk edges="D3C3 C3B3 E15 B4B3"/>
    </person>
    <person id="39" depart="39.00">
        <walk edges="B1C1 B1B2"/>
    </person>
    <person id="40" depart="40.00">
        <walk edges="C1D1 C1B1 B1C1"/>
    </person>
    <person id="41" depart="41.00">
        <walk edges="C2C1 E12 D2C2 D3D2 D3C3"/>
    </person>
    <person id="42" depart="42.00">
        <walk edges="B3B4 E18 E17 B2B3 B1B2 B1A1"/>
    </person>
    <person id="43" depart="43.00">
        <ride from="D4D3" to="C1B1" lines="taxi"/>
    </person>
    <person id="44" depart="44.00">
        <walk edges="A2B2 A2A1"/>
    </person>
    <person id="45" depart="45.00">
        <walk edges="A3A2 A3B3 E17 E16 C3B3 C3C2 E11 C2D2"/>
    </person>
    <person id="46" depart="46.00">
        <ride from="D1C1" to="B3C3" lines="taxi"/>
    </person>
    <person id="47" depart="47.00">
        <walk edges="A2A3 B2A2 B2B3 B3B2"/>
    </person>
    <person id="48" depart="48.00">
        <ride from="D4D3" to="C1C2" lines="taxi"/>
    </person>
    <person id="49" depart="49.00">
        <walk edges="D4C4 D4D3 D3D2 D2D1"/>
    </person>
    <person id="50" depart="50.00">
        <ride from="A1A2" to="C3D3" lines="taxi"/>
    </person>
</routes>
