<?xml version="1.0" encoding="UTF-8"?>

<!-- generated on 2026-03-07T23:03:19.986462+08:00 by Eclipse SUMO netedit 1.26.0
-->

<routes xmlns:xsi="http://www.w3.org/2001/XMLSchema-instance" xsi:noNamespaceSchemaLocation="http://sumo.dlr.de/xsd/routes_file.xsd">
    <!-- VTypes -->
    <vType id="myTaxi" vClass="taxi" color="yellow" length="8.00" personCapacity="10">
        <param key="has.taxi.device" value="true"/>
    </vType>
    <!-- Vehicles, persons and containers (sorted by depart) -->
    <trip id="t_0" type="myTaxi" depart="0.00" from="-53655560#11" to="-53655560#9">
        <stop lane="-53655560#9_0" startPos="44.79" endPos="54.79" duration="60.00" triggered="person"/>
    </trip>
</routes>

