<?xml version="1.0" encoding="UTF-8"?>

<!-- generated on 2026-03-06 21:38:02.119951 by Eclipse SUMO osmWebWizard.py v1_26_0+0000-fa7df22d7f1
<configuration>
    <net-file value="D:\S2W1\2026-03-06-21-37-40\osm.net.xml.gz"/>
    <output-trip-file value="D:\S2W1\2026-03-06-21-37-40\osm.passenger.trips.xml"/>
    <route-file value="D:\S2W1\2026-03-06-21-37-40\osm.passenger.rou.xml"/>
    <prefix value="veh"/>
    <trip-attributes value="departLane=&quot;best&quot;"/>
    <fringe-start-attributes value="departSpeed=&quot;max&quot;"/>
    <vehicle-class value="passenger"/>
    <lanes value="True"/>
    <fringe-factor value="5"/>
    <allow-fringe.min-length value="1000.0"/>
    <edge-permission value="passenger"/>
    <via-edge-types value="highway.motorway,highway.motorway_link,highway.trunk_link,highway.primary_link,highway.secondary_link,highway.tertiary_link"/>
    <min-distance value="300.0"/>
    <min-distance.fringe value="10.0"/>
    <remove-loops value="True"/>
    <end value="10.0"/>
    <insertion-density value="12.0"/>
</configuration>
-->

<routes xmlns:xsi="http://www.w3.org/2001/XMLSchema-instance" xsi:noNamespaceSchemaLocation="http://sumo.dlr.de/xsd/routes_file.xsd">
    <vType id="veh_passenger" vClass="passenger"/>
    <trip id="veh0" depart="0.00" from="-53655560#21" to="-53561375#4" departLane="best" type="veh_passenger"/>
    <trip id="veh1" depart="0.29" from="48986397#1" to="25721304" departLane="best" type="veh_passenger"/>
    <trip id="veh2" depart="0.59" from="608254481" to="-1479154861" departLane="best" type="veh_passenger" departSpeed="max"/>
    <trip id="veh3" depart="0.88" from="1170402891#2" to="-133481968#0" departLane="best" type="veh_passenger"/>
    <trip id="veh4" depart="1.17" from="-53561351#7" to="133481948#0" departLane="best" type="veh_passenger"/>
    <trip id="veh5" depart="1.47" from="-1264403542#3" to="-401169486#0" departLane="best" type="veh_passenger"/>
    <trip id="veh6" depart="1.76" from="25720543#0" to="136502864#0" departLane="best" type="veh_passenger"/>
    <trip id="veh7" depart="2.06" from="-53561362#0" to="165269555#1" departLane="best" type="veh_passenger"/>
    <trip id="veh8" depart="2.35" from="53633241#1" to="32527884#4" departLane="best" type="veh_passenger"/>
    <trip id="veh9" depart="2.64" from="-627950961#1" to="-25721117#6" departLane="best" type="veh_passenger"/>
    <trip id="veh10" depart="2.94" from="850642852#2" to="-583620265#7" departLane="best" type="veh_passenger"/>
    <trip id="veh11" depart="3.23" from="53633247#2" to="395696034" departLane="best" type="veh_passenger"/>
    <trip id="veh12" depart="3.52" from="136853801#1" to="884036739#3" departLane="best" type="veh_passenger"/>
    <trip id="veh13" depart="3.82" from="102678332#1" to="136962678#0" departLane="best" type="veh_passenger"/>
    <trip id="veh14" depart="4.11" from="53658195#0" to="219679816#0" departLane="best" type="veh_passenger" departSpeed="max"/>
    <trip id="veh15" depart="4.41" from="53745902#6" to="1436840135#4" departLane="best" type="veh_passenger"/>
    <trip id="veh16" depart="4.70" from="371139410#1" to="-135117943" departLane="best" type="veh_passenger"/>
    <trip id="veh17" depart="4.99" from="-53561439#6" to="-53658154#2" departLane="best" type="veh_passenger"/>
    <trip id="veh18" depart="5.29" from="-137071273" to="-53561453" departLane="best" type="veh_passenger" departSpeed="max"/>
    <trip id="veh19" depart="5.58" from="24594275#3" to="-776555497#4" departLane="best" type="veh_passenger"/>
    <trip id="veh20" depart="5.87" from="-903353404#2" to="-48951020#16" departLane="best" type="veh_passenger" departSpeed="max"/>
    <trip id="veh21" depart="6.17" from="-53655489" to="776834763#2" departLane="best" type="veh_passenger"/>
    <trip id="veh22" depart="6.46" from="25720193#0" to="206521457#1" departLane="best" type="veh_passenger"/>
    <trip id="veh23" depart="6.76" from="-32527896#13" to="395695820" departLane="best" type="veh_passenger"/>
    <trip id="veh24" depart="7.05" from="-27244982#0" to="-884036754#1" departLane="best" type="veh_passenger"/>
    <trip id="veh25" depart="7.34" from="958570442#0" to="223804592#1" departLane="best" type="veh_passenger" departSpeed="max"/>
    <trip id="veh26" depart="7.64" from="1431700984" to="27258887" departLane="best" type="veh_passenger"/>
    <trip id="veh27" depart="7.93" from="53680781#8" to="53561456#0" departLane="best" type="veh_passenger"/>
    <trip id="veh28" depart="8.22" from="-53561448#4" to="-133481988#2" departLane="best" type="veh_passenger"/>
    <trip id="veh29" depart="8.52" from="-541594063#3" to="-53633201#3" departLane="best" type="veh_passenger"/>
    <trip id="veh30" depart="8.81" from="-48951020#11" to="777857353" departLane="best" type="veh_passenger"/>
    <trip id="veh31" depart="9.11" from="541594087#3" to="-53680890#1" departLane="best" type="veh_passenger"/>
    <trip id="veh32" depart="9.40" from="25721140#1" to="1026687294" departLane="best" type="veh_passenger"/>
    <trip id="veh33" depart="9.69" from="-53633238#3" to="-53575967#7" departLane="best" type="veh_passenger"/>
    <trip id="veh34" depart="9.99" from="1436840416#1" to="-53633183#0" departLane="best" type="veh_passenger"/>
</routes>
