<?xml version="1.0" encoding="UTF-8"?>

<!-- generated on 2026-03-06T21:49:17.860571+08:00 by Eclipse SUMO netedit 1.26.0
-->

<routes xmlns:xsi="http://www.w3.org/2001/XMLSchema-instance" xsi:noNamespaceSchemaLocation="http://sumo.dlr.de/xsd/routes_file.xsd">
    <!-- VTypes -->
    <vType id="myTaxi" vClass="taxi" color="yellow" length="8.00" personCapacity="10">
        <param key="has.taxi.device" value="true"/>
    </vType>
    <!-- Vehicles, persons and containers (sorted by depart) -->
    <trip id="t_0" type="myTaxi" depart="10.00" from="102678345#0" to="102678345#1">
        <stop lane="102678345#0_0" startPos="115.43" endPos="125.43" duration="60.00" triggered="person"/>
    </trip>
</routes>

